V1 N001 0 SINE(0 10 100)
R1 N002 N001 11
R8 0 N003 1
C1 N002 N003 500µ

.tran 1m 50m
