* Test containing a single capacitor

V1 N001 0 SINE(0 1 100)
R1 N002 N001 7
C1 N002 N003 500µ
R2 N003 0 3
.tran 0.1
.backanno
.end
