V1 N001 0 SINE(0 5 100)
R1 N002 N001 5
L1 N002 N003 5m
D1 N003 0 D

.tran 0.1
