I1 N001 N003 2
R1 N004 N003 3
R2 N002 N004 7
R3 N004 N002 10
R4 N001 N002 1
R5 N002 0 4
V1 N003 0 5

.tran 0 10ms 0 1us

.end
